/*--------------------------------*- C++ -*----------------------------------*\
  =========                 |
  \\      /  F ield         | OpenFOAM: The Open Source CFD Toolbox
   \\    /   O peration     | Website:  https://openfoam.org
    \\  /    A nd           | Version:  7
     \\/     M anipulation  |
\*---------------------------------------------------------------------------*/
FoamFile
{
    version     2.0;
    format      ascii;
    class       dictionary;
    location    "system";
    object      fvSolution;
}
// * * * * * * * * * * * * * * * * * * * * * * * * * * * * * * * * * * * * * //

solvers
{
    p
    {
        solver          PCG;
        preconditioner  DIC;
        smoother        DIC;

        tolerance       1e-6;
        relTol          0;
    }

    pFinal
    {
        $p;
        relTol 0;
    }

    U
    {
        solver          PBiCG;
        preconditioner  DILU;

        tolerance       1e-5;
        relTol          0;
    }

    UFinal
    {
	$U;
	relTol 0;
    }

    omega
    {
	solver		PBiCG;
	preconditioner  DILU;

	tolerance 	1e-5;
	relTol		0;
    }

    omegaFinal
    {
	$omega;
	relTol 0;
    }

    k
    {
	solver 		PBiCG;
	preconditioner	DILU;

	tolerance	1e-5;
	relTol		0;
    }

    kFinal
    {
	$k;
	relTol 0;
    }
}

PIMPLE
{
    nCorrectors         2;
    nNonOrthogonalCorrectors 3;
    pRefCell 0;
    pRefValue 0;
}


// ************************************************************************* //

