/*--------------------------------*- C++ -*----------------------------------*\
  =========                 |
  \\      /  F ield         | OpenFOAM: The Open Source CFD Toolbox
   \\    /   O peration     | Website:  https://openfoam.org
    \\  /    A nd           | Version:  7
     \\/     M anipulation  |
\*---------------------------------------------------------------------------*/
FoamFile
{
    version     2.0;
    format      ascii;
    class       dictionary;
    location    "system";
    object      controlDict;
}
// * * * * * * * * * * * * * * * * * * * * * * * * * * * * * * * * * * * * * //

application     pimpleFoam;

startFrom       startTime;

startTime       0;

stopAt          endTime;

endTime         0.2;

deltaT          0.00001;

writeControl     runTime;

writeInterval    0.01;

purgeWrite      0;

writeFormat     ascii;

writePrecision  6;

writeCompression off;

timeFormat      general;

timePrecision   6;

runTimeModifiable true;

//functions
//(
//	forces
//	{
//		type forces;
//		functionObjectLibs ("libforces.so");
//		patches (cylinder); 
//		pName p;
//		UName U;
//		rhoName rhoInf;
//		rhoInf 1000;
//		CofR (0 0 0);
//		outputControl timeStep;
//		outputInterval 100;
//	}
//	forceCoeffs 
//	{
//		type forceCoeffs;
//		functionObjectLibs ("libforces.so");
//		patches (cylinder);
//		pName p;
//		UName U;
//		rhoName rhoInf;
//		rhoInf 1000;
//		CofR (0 0 0);
//		liftDir (0 1 0);
//		dragDir (1 0 0);
//		pitchAxis (0 0 1);
//		magUInf 5;
//		lRef 0.1;
//		Aref 0.01;
//		outputControl timeStep;
//		outputInterval 100;
//	}
//);

adjustTimeStep yes;
maxCo 1;

// ************************************************************************* //
